Circuit: * F:\Usuario Elias\Downloads\FIUBA\01 - En Curso\Circuitos I\Repos\circuitos\ejercicio-02_10_19.asc

Per .tran options, skipping operating point for transient analysis.

Date: Fri Oct 11 12:27:23 2019
Total elapsed time: 1.105 seconds.

tnom = 27
temp = 27
method = modified trap
totiter = 285562
traniter = 285562
tranpoints = 118194
accept = 110827
rejected = 7367
matrix size = 11
fillins = 0
solver = Normal
Matrix Compiler1: 610 bytes object code size  0.4/0.1/[0.1]
Matrix Compiler2: 835 bytes object code size  0.1/0.2/[0.1]

