Circuit: * F:\Usuario Elias\Downloads\FIUBA\01 - En Curso\Circuitos I\Repos\circuitos\ejercicio-02_10_19.asc

Per .tran options, skipping operating point for transient analysis.

Date: Fri Oct 04 15:05:59 2019
Total elapsed time: 0.146 seconds.

tnom = 27
temp = 27
method = modified trap
totiter = 16443
traniter = 16443
tranpoints = 8113
accept = 8074
rejected = 39
matrix size = 11
fillins = 0
solver = Normal
Matrix Compiler1: 610 bytes object code size  0.3/0.1/[0.1]
Matrix Compiler2: 835 bytes object code size  0.1/0.2/[0.1]

