Circuit: * F:\Usuario Elias\Downloads\FIUBA\01 - En Curso\Circuitos I\Repos\circuitos\ejercicio-02_10_19D.asc

Direct Newton iteration for .op point succeeded.

Date: Fri Oct 11 12:57:48 2019
Total elapsed time: 0.539 seconds.

tnom = 27
temp = 27
method = modified trap
totiter = 305711
traniter = 305705
tranpoints = 123774
accept = 114498
rejected = 9276
matrix size = 10
fillins = 0
solver = Normal
Matrix Compiler1: 560 bytes object code size  0.3/0.1/[0.1]
Matrix Compiler2: off  [0.1]/0.2/0.1

