Circuit: * F:\Usuario Elias\Downloads\FIUBA\01 - En Curso\Circuitos I\Repos\circuitos\ejercicio-02_10_19C.asc

Direct Newton iteration for .op point succeeded.

Date: Fri Oct 11 12:17:32 2019
Total elapsed time: 0.460 seconds.

tnom = 27
temp = 27
method = modified trap
totiter = 208792
traniter = 208782
tranpoints = 101021
accept = 101021
rejected = 0
matrix size = 11
fillins = 0
solver = Normal
Matrix Compiler1: 610 bytes object code size  0.4/0.1/[0.1]
Matrix Compiler2: 835 bytes object code size  0.1/0.2/[0.1]

