Circuit: * E:\Circuitos I\sims\ejercicio-02_10_19D.asc

Direct Newton iteration for .op point succeeded.

Date: Mon Sep 02 19:36:40 2019
Total elapsed time: 1.128 seconds.

tnom = 27
temp = 27
method = modified trap
totiter = 305711
traniter = 305705
tranpoints = 123774
accept = 114498
rejected = 9276
matrix size = 10
fillins = 0
solver = Normal
Matrix Compiler1: 560 bytes object code size  2.9/2.9/[2.5]
Matrix Compiler2: 762 bytes object code size  2.5/2.9/[2.5]

