Circuit: * F:\Usuario Elias\Downloads\FIUBA\01 - En Curso\Circuitos I\Repos\circuitos\ejercicio-02_10_19B.asc

Direct Newton iteration for .op point succeeded.

Date: Fri Oct 11 12:32:21 2019
Total elapsed time: 0.652 seconds.

tnom = 27
temp = 27
method = modified trap
totiter = 302228
traniter = 302220
tranpoints = 127447
accept = 117114
rejected = 10333
matrix size = 11
fillins = 0
solver = Normal
Matrix Compiler1: 610 bytes object code size  0.3/0.1/[0.1]
Matrix Compiler2: 835 bytes object code size  0.1/0.2/[0.1]

